CM
CE






GW 1 10 0 0 0 0 0 0.47 0.002
GW 2 10 0.05 0 0 0.05 0 0.14 0.002
GW 3 20 0.15 0 0 0.15 0 1.4 0.002
GW 4 1 0 0 0 0.05 0 0 0.002
GW 5 2 0.05 0 0 0.15 0 0 0.002
GE 0
GN -1
EK
EX 0 1 1 0 1 0 0
FR 0 0 0 0 145 0
EN
